/*--------------------------------*- C++ -*----------------------------------*\
  =========                 |
  \\      /  F ield         | OpenFOAM: The Open Source CFD Toolbox
   \\    /   O peration     | Website:  https://openfoam.org
    \\  /    A nd           | Version:  7
     \\/     M anipulation  |
\*---------------------------------------------------------------------------*/
FoamFile
{
    version     2.0;
    format      ascii;
    class       volScalarField;
    object      epsilon;
}
// * * * * * * * * * * * * * * * * * * * * * * * * * * * * * * * * * * * * * //

epsilonInlet      0.001;
mixingLengthInlet 0.007;

dimensions      [0 2 -3 0 0 0 0];

internalField   uniform $epsilonInlet;

boundaryField
{
    ".*"
    {
        type            compressible::epsilonWallFunction;
        value           uniform $epsilonInlet;
    }

    fluid_to_heater
    {
        type            compressible::epsilonWallFunction;
        value           uniform $epsilonInlet;
    }

    inlet
    {
//        type            turbulentMixingLengthDissipationRateInlet;
//        mixingLength    $mixingLengthInlet;
//        value           uniform $epsilonInlet;
        type            compressible::epsilonWallFunction;
        value           uniform $epsilonInlet;
    }

    outlet
    {
//        type            inletOutlet;
//        value           uniform $epsilonInlet;
//        inletValue      uniform $epsilonInlet;
        type            compressible::epsilonWallFunction;
        value           uniform $epsilonInlet;
    }

    walls
    {
        type            compressible::epsilonWallFunction;
        value           uniform $epsilonInlet;
    }
// next
    #includeEtc "caseDicts/setConstraintTypes"
}


// ************************************************************************* //
