/*--------------------------------*- C++ -*----------------------------------*\
| =========                 |                                                 |
| \\      /  F ield         | OpenFOAM: The Open Source CFD Toolbox           |
|  \\    /   O peration     | Version:  v2106                                 |
|   \\  /    A nd           | Website:  www.openfoam.com                      |
|    \\/     M anipulation  |                                                 |
\*---------------------------------------------------------------------------*/
FoamFile
{
    version     2.0;
    format      ascii;
    class       dictionary;
    object      blockMeshDict;
}
// * * * * * * * * * * * * * * * * * * * * * * * * * * * * * * * * * * * * * //
xMin -1;
xMax 4;
yMin -1;
yMax 6;
zMin -1;
zMax 3;



//scale   1;

vertices
(
    ( $xMin $yMin $zMin)
    ( $xMax $yMin $zMin)
    ( $xMax $yMax $zMin)
    ( $xMin $yMax $zMin)
    ( $xMin $yMin $zMax)
    ( $xMax $yMin $zMax)
    ( $xMax $yMax $zMax)
    ( $xMin $yMax $zMax)
);

blocks
(
//   hex (0 1 2 3 4 5 6 7) (30 30 30) simpleGrading (1 1 1)
    hex (0 1 2 3 4 5 6 7) fluid (30 30 30) simpleGrading (1 1 1)
);

edges
(
);

defaultPatch
{
    type empty;
    name default;
}

boundary
(
//    type empty;
//    name default;

//    allBoundary
//    {
//        type empty;
//        faces
//        (
//            (3 7 6 2)
//            (0 4 7 3)
//            (2 6 5 1)
//            (1 5 4 0)
//            (0 3 2 1)
//            (4 5 6 7)
//        );
//    }
);


// ************************************************************************* //

