/*--------------------------------*- C++ -*----------------------------------*\
  =========                 |
  \\      /  F ield         | OpenFOAM: The Open Source CFD Toolbox
   \\    /   O peration     | Website:  https://openfoam.org
    \\  /    A nd           | Version:  7
     \\/     M anipulation  |
\*---------------------------------------------------------------------------*/
FoamFile
{
    version     2.0;
    format      ascii;
    class       volScalarField;
    object      alphat;
}
// * * * * * * * * * * * * * * * * * * * * * * * * * * * * * * * * * * * * * //

dimensions      [1 -1 -1 0 0 0 0];

internalField   uniform 0;

boundaryField
{
    ".*"
    {
        type            compressible::alphatWallFunction;
        value           uniform 0;
    }

    fluid_to_heater
    {
        type            compressible::alphatWallFunction;
        value           uniform 0;
    }

    inlet
    {
//        type            calculated;
//        value           uniform 0;
        type            compressible::alphatWallFunction;
        value           uniform 0;
    }

    outlet
    {
//        type            calculated;
//        value           uniform 0;
        type            compressible::alphatWallFunction;
        value           uniform 0;
    }

    walls
    {
        type            compressible::alphatWallFunction;
        value           uniform 0;
    }
// next
    #includeEtc "caseDicts/setConstraintTypes"
}

// ************************************************************************* //
