/*--------------------------------*- C++ -*----------------------------------*\
  =========                 |
  \\      /  F ield         | OpenFOAM: The Open Source CFD Toolbox
   \\    /   O peration     | Website:  https://openfoam.org
    \\  /    A nd           | Version:  7
     \\/     M anipulation  |
\*---------------------------------------------------------------------------*/
FoamFile
{
    version     2.0;
    format      ascii;
    class       volScalarField;
    object      k;
}
// * * * * * * * * * * * * * * * * * * * * * * * * * * * * * * * * * * * * * //

kInlet          0.02;
intensityInlet  0.01;

dimensions      [0 2 -2 0 0 0 0];

internalField   uniform $kInlet;

boundaryField
{
    ".*"
    {
        type            kqRWallFunction;
        value           uniform $kInlet;
    }

    fluid_to_heater
    {
        type            kqRWallFunction;
        value           uniform $kInlet;
    }

    inlet
    {
        type            kqRWallFunction;
        value           uniform $kInlet;
//        type            turbulentIntensityKineticEnergyInlet;
//        intensity       $intensityInlet;
//        value           uniform $kInlet;
    }

    outlet
    {
        type            kqRWallFunction;
        value           uniform $kInlet;
//        type            inletOutlet;
//        inletValue      uniform $kInlet;
//        value           uniform $kInlet;
    }

    walls
    {
        type            kqRWallFunction;
        value           uniform $kInlet;
    }
// next
    #includeEtc "caseDicts/setConstraintTypes"
}


// ************************************************************************* //
