/*--------------------------------*- C++ -*----------------------------------*\
  =========                 |
  \\      /  F ield         | OpenFOAM: The Open Source CFD Toolbox
   \\    /   O peration     | Website:  https://openfoam.org
    \\  /    A nd           | Version:  7
     \\/     M anipulation  |
\*---------------------------------------------------------------------------*/
FoamFile
{
    version     2.0;
    format      ascii;
    class       volScalarField;
    object      T;
}
// * * * * * * * * * * * * * * * * * * * * * * * * * * * * * * * * * * * * * //

#include "$FOAM_CASE/constant/initialConditions";

dimensions      [0 0 0 1 0 0 0];

internalField   uniform $Troom;

boundaryField
{
    ".*"
    {
        type           fixedValue;
        value          $internalField;
    }

    fluid_to_heater
    {
        type            compressible::turbulentTemperatureCoupledBaffleMixed;
        value           $internalField;
        kappaMethod     fluidThermo;
        kappa           kappa;
        Tnbr            T;
        kappaMethod     fluidThermo;
    }

    inlet
    {
//        type            fixedValue;
//        value           $internalField;
        type           fixedValue;
        value          $internalField;
    }

    outlet
    {
//        type            inletOutlet;
//        inletValue      uniform $Tout;
//        value           uniform $Tout;
        type           fixedValue;
        value          $internalField;
    }

//    walls
//    {
//        type            compressible::turbulentTemperatureCoupledBaffleMixed;
//        neighbourFieldName T;
//        kappaMethod     fluidThermo;
//        kappa           kappa;
//        Tnbr            T;
//        value           uniform $Tinitial;
//    }

    walls
    {
        type           fixedValue;
        value          $internalField;
    }
// next
    #includeEtc "caseDicts/setConstraintTypes"
}


// ************************************************************************* //
